ammonia
  hfauto          3D

  4  3  0  0  0  0  0  0  0  0999 V2000
    0.0000    0.0000    0.1000 N   0  0  0  0  0  0  0  0  0  0  0  0
    0.9400    0.0000   -0.2500 H   0  0  0  0  0  0  0  0  0  0  0  0
   -0.4700    0.8140   -0.2500 H   0  0  0  0  0  0  0  0  0  0  0  0
   -0.4700   -0.8140   -0.2500 H   0  0  0  0  0  0  0  0  0  0  0  0
  1  2  1  0
  1  3  1  0
  1  4  1  0
M  END
$$$$
hydrogen_fluoride
  hfauto          3D

  2  1  0  0  0  0  0  0  0  0999 V2000
    0.0000    0.0000    0.0000 H   0  0  0  0  0  0  0  0  0  0  0  0
    0.9170    0.0000    0.0000 F   0  0  0  0  0  0  0  0  0  0  0  0
  1  2  1  0
M  END
$$$$
