ammonia
     RDKit          3D

  4  3  0  0  0  0  0  0  0  0999 V2000
    0.0045    0.0004    0.2956 N   0  0  0  0  0  0  0  0  0  0  0  0
    0.9329   -0.0992   -0.1125 H   0  0  0  0  0  0  0  0  0  0  0  0
   -0.5544   -0.7599   -0.0890 H   0  0  0  0  0  0  0  0  0  0  0  0
   -0.3829    0.8586   -0.0941 H   0  0  0  0  0  0  0  0  0  0  0  0
  1  2  1  0
  1  3  1  0
  1  4  1  0
M  END
>  <source>  (1) 
hfauto_example

$$$$
trimethylamine
     RDKit          3D

 13 12  0  0  0  0  0  0  0  0999 V2000
   -1.0663   -0.8876   -0.0301 C   0  0  0  0  0  0  0  0  0  0  0  0
   -0.0449    0.0476   -0.5001 N   0  0  0  0  0  0  0  0  0  0  0  0
    1.2923   -0.4637   -0.2017 C   0  0  0  0  0  0  0  0  0  0  0  0
   -0.2369    1.3629    0.1097 C   0  0  0  0  0  0  0  0  0  0  0  0
   -0.9490   -1.8619   -0.5175 H   0  0  0  0  0  0  0  0  0  0  0  0
   -1.0243   -1.0373    1.0549 H   0  0  0  0  0  0  0  0  0  0  0  0
   -2.0676   -0.5258   -0.2897 H   0  0  0  0  0  0  0  0  0  0  0  0
    2.0593    0.2157   -0.5899 H   0  0  0  0  0  0  0  0  0  0  0  0
    1.4526   -1.4304   -0.6922 H   0  0  0  0  0  0  0  0  0  0  0  0
    1.4573   -0.5914    0.8744 H   0  0  0  0  0  0  0  0  0  0  0  0
   -0.1516    1.3304    1.2021 H   0  0  0  0  0  0  0  0  0  0  0  0
   -1.2230    1.7657   -0.1472 H   0  0  0  0  0  0  0  0  0  0  0  0
    0.5022    2.0757   -0.2727 H   0  0  0  0  0  0  0  0  0  0  0  0
  1  2  1  0
  2  3  1  0
  2  4  1  0
  1  5  1  0
  1  6  1  0
  1  7  1  0
  3  8  1  0
  3  9  1  0
  3 10  1  0
  4 11  1  0
  4 12  1  0
  4 13  1  0
M  END
>  <source>  (2) 
hfauto_example

$$$$
pyridine
     RDKit          3D

 11 11  0  0  0  0  0  0  0  0999 V2000
   -0.3468    1.1286    0.0870 C   0  0  0  0  0  0  0  0  0  0  0  0
    1.0065    0.8113    0.0351 C   0  0  0  0  0  0  0  0  0  0  0  0
    1.3635   -0.5238   -0.0667 C   0  0  0  0  0  0  0  0  0  0  0  0
    0.4725   -1.5380   -0.1185 N   0  0  0  0  0  0  0  0  0  0  0  0
   -0.8341   -1.1991   -0.0661 C   0  0  0  0  0  0  0  0  0  0  0  0
   -1.2884    0.1062    0.0357 C   0  0  0  0  0  0  0  0  0  0  0  0
   -0.6649    2.1640    0.1668 H   0  0  0  0  0  0  0  0  0  0  0  0
    1.7651    1.5848    0.0729 H   0  0  0  0  0  0  0  0  0  0  0  0
    2.4069   -0.8224   -0.1105 H   0  0  0  0  0  0  0  0  0  0  0  0
   -1.5299   -2.0320   -0.1095 H   0  0  0  0  0  0  0  0  0  0  0  0
   -2.3504    0.3203    0.0740 H   0  0  0  0  0  0  0  0  0  0  0  0
  1  2  2  0
  2  3  1  0
  3  4  2  0
  4  5  1  0
  5  6  2  0
  6  1  1  0
  1  7  1  0
  2  8  1  0
  3  9  1  0
  5 10  1  0
  6 11  1  0
M  END
>  <source>  (3) 
hfauto_example

$$$$
dimethyl_ether
     RDKit          3D

  9  8  0  0  0  0  0  0  0  0999 V2000
    1.1461    0.2618   -0.0206 C   0  0  0  0  0  0  0  0  0  0  0  0
   -0.1012    0.5252   -0.6490 O   0  0  0  0  0  0  0  0  0  0  0  0
   -1.1561   -0.2099   -0.0435 C   0  0  0  0  0  0  0  0  0  0  0  0
    1.4029   -0.7983   -0.1082 H   0  0  0  0  0  0  0  0  0  0  0  0
    1.1140    0.5562    1.0329 H   0  0  0  0  0  0  0  0  0  0  0  0
    1.9171    0.8509   -0.5245 H   0  0  0  0  0  0  0  0  0  0  0  0
   -0.9735   -1.2853   -0.1319 H   0  0  0  0  0  0  0  0  0  0  0  0
   -1.2624    0.0692    1.0092 H   0  0  0  0  0  0  0  0  0  0  0  0
   -2.0868    0.0304   -0.5644 H   0  0  0  0  0  0  0  0  0  0  0  0
  1  2  1  0
  2  3  1  0
  1  4  1  0
  1  5  1  0
  1  6  1  0
  3  7  1  0
  3  8  1  0
  3  9  1  0
M  END
>  <source>  (4) 
hfauto_example

$$$$
