ammonia
     RDKit          3D

  4  3  0  0  0  0  0  0  0  0999 V2000
    0.0007   -0.0011    0.2956 N   0  0  0  0  0  0  0  0  0  0  0  0
   -0.5786   -0.7402   -0.0999 H   0  0  0  0  0  0  0  0  0  0  0  0
   -0.3524    0.8716   -0.0945 H   0  0  0  0  0  0  0  0  0  0  0  0
    0.9303   -0.1303   -0.1011 H   0  0  0  0  0  0  0  0  0  0  0  0
  1  2  1  0
  1  3  1  0
  1  4  1  0
M  END
>  <candidate_id>  (1) 
NH3

>  <class>  (1) 
reference_base

>  <problem_axis>  (1) 
small-molecule anchor

>  <hypothesis>  (1) 
Weakest nitrogen-base anchor; additional HF should most clearly expose cluster cooperativity.

>  <reference_source>  (1) 
NIST Chemistry WebBook reviewed value

>  <canonical_smiles>  (1) 
N

>  <panel_id>  (1) 
amine_hf_gas_phase_2026

>  <panel_subset>  (1) 
pilot

>  <proton_affinity_kj_mol>  (1) 
853.6

>  <gas_basicity_kj_mol>  (1) 
819.0

$$$$
trimethylamine
     RDKit          3D

 13 12  0  0  0  0  0  0  0  0999 V2000
   -0.2810    1.3342   -0.2583 C   0  0  0  0  0  0  0  0  0  0  0  0
    0.1330   -0.0502   -0.4839 N   0  0  0  0  0  0  0  0  0  0  0  0
    1.2876   -0.3807    0.3506 C   0  0  0  0  0  0  0  0  0  0  0  0
   -0.9741   -0.9657   -0.2105 C   0  0  0  0  0  0  0  0  0  0  0  0
   -1.1198    1.5963   -0.9128 H   0  0  0  0  0  0  0  0  0  0  0  0
    0.5345    2.0241   -0.5024 H   0  0  0  0  0  0  0  0  0  0  0  0
   -0.5847    1.5127    0.7797 H   0  0  0  0  0  0  0  0  0  0  0  0
    2.1317    0.2779    0.1176 H   0  0  0  0  0  0  0  0  0  0  0  0
    1.0657   -0.2916    1.4203 H   0  0  0  0  0  0  0  0  0  0  0  0
    1.6247   -1.4044    0.1526 H   0  0  0  0  0  0  0  0  0  0  0  0
   -0.6782   -2.0000   -0.4187 H   0  0  0  0  0  0  0  0  0  0  0  0
   -1.3139   -0.9070    0.8300 H   0  0  0  0  0  0  0  0  0  0  0  0
   -1.8256   -0.7456   -0.8641 H   0  0  0  0  0  0  0  0  0  0  0  0
  1  2  1  0
  2  3  1  0
  2  4  1  0
  1  5  1  0
  1  6  1  0
  1  7  1  0
  3  8  1  0
  3  9  1  0
  3 10  1  0
  4 11  1  0
  4 12  1  0
  4 13  1  0
M  END
>  <candidate_id>  (2) 
TMA

>  <class>  (2) 
tertiary_aliphatic_amine

>  <problem_axis>  (2) 
strong compact base

>  <hypothesis>  (2) 
High gas-phase basicity should favor the ion-pair endpoint, while three methyl groups may alter the approach geometry.

>  <reference_source>  (2) 
NIST Chemistry WebBook reviewed value

>  <canonical_smiles>  (2) 
CN(C)C

>  <panel_id>  (2) 
amine_hf_gas_phase_2026

>  <panel_subset>  (2) 
pilot

>  <proton_affinity_kj_mol>  (2) 
948.9

>  <gas_basicity_kj_mol>  (2) 
918.0

$$$$
aniline
     RDKit          3D

 14 14  0  0  0  0  0  0  0  0999 V2000
    2.2712   -0.3502    0.0943 N   0  0  0  0  0  0  0  0  0  0  0  0
    0.9053   -0.1470    0.0209 C   0  0  0  0  0  0  0  0  0  0  0  0
    0.3901    1.0554   -0.4687 C   0  0  0  0  0  0  0  0  0  0  0  0
   -0.9892    1.2768   -0.5135 C   0  0  0  0  0  0  0  0  0  0  0  0
   -1.8674    0.2975   -0.0561 C   0  0  0  0  0  0  0  0  0  0  0  0
   -1.3647   -0.8989    0.4497 C   0  0  0  0  0  0  0  0  0  0  0  0
    0.0155   -1.1150    0.4921 C   0  0  0  0  0  0  0  0  0  0  0  0
    2.6380   -1.2447    0.3874 H   0  0  0  0  0  0  0  0  0  0  0  0
    2.9086    0.3232   -0.3066 H   0  0  0  0  0  0  0  0  0  0  0  0
    1.0608    1.8337   -0.8218 H   0  0  0  0  0  0  0  0  0  0  0  0
   -1.3747    2.2154   -0.9021 H   0  0  0  0  0  0  0  0  0  0  0  0
   -2.9399    0.4682   -0.0885 H   0  0  0  0  0  0  0  0  0  0  0  0
   -2.0441   -1.6639    0.8153 H   0  0  0  0  0  0  0  0  0  0  0  0
    0.3904   -2.0505    0.8977 H   0  0  0  0  0  0  0  0  0  0  0  0
  1  2  1  0
  2  3  2  0
  3  4  1  0
  4  5  2  0
  5  6  1  0
  6  7  2  0
  7  2  1  0
  1  8  1  0
  1  9  1  0
  3 10  1  0
  4 11  1  0
  5 12  1  0
  6 13  1  0
  7 14  1  0
M  END
>  <candidate_id>  (3) 
ANL

>  <class>  (3) 
resonance_delocalized_amine

>  <problem_axis>  (3) 
lone-pair delocalization

>  <hypothesis>  (3) 
Resonance lowers intrinsic basicity and should weaken proton transfer despite an accessible nitrogen.

>  <reference_source>  (3) 
NIST Chemistry WebBook reviewed value

>  <canonical_smiles>  (3) 
Nc1ccccc1

>  <panel_id>  (3) 
amine_hf_gas_phase_2026

>  <panel_subset>  (3) 
pilot

>  <proton_affinity_kj_mol>  (3) 
882.5

>  <gas_basicity_kj_mol>  (3) 
850.6

$$$$
pyridine
     RDKit          3D

 11 11  0  0  0  0  0  0  0  0999 V2000
    0.2338   -1.5958   -0.0368 N   0  0  0  0  0  0  0  0  0  0  0  0
    1.2672   -0.7287    0.0333 C   0  0  0  0  0  0  0  0  0  0  0  0
    1.1169    0.6486    0.0673 C   0  0  0  0  0  0  0  0  0  0  0  0
   -0.1716    1.1711    0.0270 C   0  0  0  0  0  0  0  0  0  0  0  0
   -1.2564    0.3035   -0.0453 C   0  0  0  0  0  0  0  0  0  0  0  0
   -1.0053   -1.0591   -0.0745 C   0  0  0  0  0  0  0  0  0  0  0  0
    2.2525   -1.1849    0.0625 H   0  0  0  0  0  0  0  0  0  0  0  0
    1.9832    1.2978    0.1237 H   0  0  0  0  0  0  0  0  0  0  0  0
   -0.3289    2.2455    0.0517 H   0  0  0  0  0  0  0  0  0  0  0  0
   -2.2727    0.6790   -0.0782 H   0  0  0  0  0  0  0  0  0  0  0  0
   -1.8186   -1.7768   -0.1307 H   0  0  0  0  0  0  0  0  0  0  0  0
  1  2  2  0
  2  3  1  0
  3  4  2  0
  4  5  1  0
  5  6  2  0
  6  1  1  0
  2  7  1  0
  3  8  1  0
  4  9  1  0
  5 10  1  0
  6 11  1  0
M  END
>  <candidate_id>  (4) 
PYR

>  <class>  (4) 
aromatic_pyridine_like_base

>  <problem_axis>  (4) 
aromatic accessible nitrogen

>  <hypothesis>  (4) 
An accessible aromatic lone pair provides a contrast to resonance-delocalized aniline at similar molecular size.

>  <reference_source>  (4) 
NIST Chemistry WebBook reviewed value

>  <canonical_smiles>  (4) 
c1ccncc1

>  <panel_id>  (4) 
amine_hf_gas_phase_2026

>  <panel_subset>  (4) 
pilot

>  <proton_affinity_kj_mol>  (4) 
930.0

>  <gas_basicity_kj_mol>  (4) 
898.0

$$$$
